bond semantics
  molchemist

  0  0  0     0  0            999 V3000
M  V30 BEGIN CTAB
M  V30 COUNTS 9 8 0 0 0
M  V30 BEGIN ATOM
M  V30 1 C 0.0000 0.0000 0.0000 0
M  V30 2 N 1.5000 0.0000 0.0000 0
M  V30 3 O 3.0000 0.0000 0.0000 0
M  V30 4 S 4.5000 0.0000 0.0000 0
M  V30 5 P 6.0000 0.0000 0.0000 0
M  V30 6 F 7.5000 0.0000 0.0000 0
M  V30 7 Cl 9.0000 0.0000 0.0000 0
M  V30 8 Br 10.5000 0.0000 0.0000 0
M  V30 9 I 12.0000 0.0000 0.0000 0
M  V30 END ATOM
M  V30 BEGIN BOND
M  V30 1 4 1 2
M  V30 2 5 2 3
M  V30 3 6 3 4
M  V30 4 7 4 5
M  V30 5 8 5 6
M  V30 6 9 6 7
M  V30 7 10 7 8
M  V30 8 1 8 9 CFG=2
M  V30 END BOND
M  V30 END CTAB
M  END
$$$$
