ctfile fidelity
  molchemist

  0  0  0     0  0            999 V3000
M  V30 BEGIN CTAB
M  V30 COUNTS 4 2 1 0 0
M  V30 BEGIN ATOM
M  V30 10 "NOT [C,N]" 0.0000 0.0000 0.0000 0 HCOUNT=1 SUBST=3 UNSAT=1 RBCNT=2
M  V30 20 R# 1.5000 0.0000 0.0000 0 RGROUPS=(1 7)
M  V30 30 C 3.0000 0.0000 0.0000 0
M  V30 40 C 4.5000 0.0000 0.0000 0
M  V30 END ATOM
M  V30 BEGIN BOND
M  V30 5 1 10 20 TOPO=1
M  V30 6 1 30 40
M  V30 END BOND
M  V30 BEGIN SGROUP
M  V30 3 SRU 0 ATOMS=(2 30 40) LABEL=n BRKXYZ=(9 2.6 0.5 0 2.6 -0.5 0 0 0 0) BRKXYZ=(9 4.9 0.5 0 4.9 -0.5 0 0 0 0)
M  V30 END SGROUP
M  V30 BEGIN COLLECTION
M  V30 MDLV30/HILITE ATOMS=(2 10 20) BONDS=(1 5)
M  V30 END COLLECTION
M  V30 END CTAB
M  END
> <SOURCE>
first
line two

> <SOURCE>
second

$$$$
