R-group comparison
  molchemist

  0  0  0  0  0  0            999 V3000
M  V30 BEGIN CTAB
M  V30 COUNTS 7 7 0 0 0
M  V30 BEGIN ATOM
M  V30 1 C 1 0 0 0
M  V30 2 C 0.5 0.866025 0 0
M  V30 3 C -0.5 0.866025 0 0
M  V30 4 C -1 0 0 0
M  V30 5 C -0.5 -0.866025 0 0
M  V30 6 C 0.5 -0.866025 0 0
M  V30 7 R# 2 0 0 0 RGROUPS=(1 1)
M  V30 END ATOM
M  V30 BEGIN BOND
M  V30 1 2 1 2
M  V30 2 1 2 3
M  V30 3 2 3 4
M  V30 4 1 4 5
M  V30 5 2 5 6
M  V30 6 1 6 1
M  V30 7 1 1 7
M  V30 END BOND
M  V30 END CTAB
M  V30 BEGIN RGROUP 1
M  V30 RLOGIC 0 1 >0
M  V30 BEGIN CTAB
M  V30 COUNTS 2 1 0 0 0
M  V30 BEGIN ATOM
M  V30 1 O 0 0 0 0 ATTCHPT=1
M  V30 2 C 1 0 0 0
M  V30 END ATOM
M  V30 BEGIN BOND
M  V30 1 1 1 2
M  V30 END BOND
M  V30 END CTAB
M  V30 BEGIN CTAB
M  V30 COUNTS 2 1 0 0 0
M  V30 BEGIN ATOM
M  V30 1 C 0 0 0 0 ATTCHPT=1
M  V30 2 N 1 0 0 0
M  V30 END ATOM
M  V30 BEGIN BOND
M  V30 1 3 1 2
M  V30 END BOND
M  V30 END CTAB
M  V30 END RGROUP
M  END
