carbon
  molchemist

  1  0  0  0  0  0  0  0  0  0999 V2000
    0.0000    0.0000    0.0000 C   0  0  0  0  0  0  0  0  0  0  0  0
M  END
$$$$
charged metadata
  molchemist

  0  0  0     0  0            999 V3000
M  V30 BEGIN CTAB
M  V30 COUNTS 2 1 0 0 0
M  V30 BEGIN ATOM
M  V30 1 N 0.0000 0.0000 0.0000 7 CHG=1 MASS=15 RAD=2
M  V30 2 O 1.5000 0.0000 0.0000 0 CHG=-1
M  V30 END ATOM
M  V30 BEGIN BOND
M  V30 1 1 1 2
M  V30 END BOND
M  V30 END CTAB
M  END
$$$$
