stereochemistry fidelity
  molchemist

  0  0  0     0  0            999 V3000
M  V30 BEGIN CTAB
M  V30 COUNTS 7 5 0 0 0
M  V30 BEGIN ATOM
M  V30 1 C 0.0000 0.0000 0.0000 0 CFG=1
M  V30 2 H 1.0000 0.0000 0.0000 0
M  V30 3 F -1.0000 0.0000 0.0000 0
M  V30 4 Cl 0.0000 1.0000 0.0000 0
M  V30 5 Br 0.0000 -1.0000 0.0000 0
M  V30 6 C 3.0000 0.0000 0.0000 0
M  V30 7 C 4.5000 0.0000 0.0000 0
M  V30 END ATOM
M  V30 BEGIN BOND
M  V30 1 1 1 2 CFG=1
M  V30 2 1 1 3
M  V30 3 1 1 4
M  V30 4 1 1 5
M  V30 5 2 6 7 CFG=2
M  V30 END BOND
M  V30 BEGIN COLLECTION
M  V30 MDLV30/STEREL7 ATOMS=(1 1)
M  V30 END COLLECTION
M  V30 END CTAB
M  END
$$$$
